Circuit: * C:\Users\coler\Documents\uf\fall23\circuits\lab10\prelab.asc

Early termination of direct N-R iteration.
Direct Newton iteration failed to find .op point.  (Use ".option noopiter" to skip.)
Starting Gmin stepping
Gmin = 10
Gmin = 1.07374
Gmin = 0.115292
Gmin = 0.0123794
Gmin = 0.00132923
Gmin = 0.000142725
Gmin = 1.5325e-05
Gmin = 1.6455e-06
vernier = 0.5
vernier = 0.25
vernier = 0.125
vernier = 0.0625
vernier = 0.03125
vernier = 0.015625
vernier = 0.0078125
vernier = 0.00390625
vernier = 0.00195312
vernier = 0.000976562
Gmin = 2.05688e-06
vernier = 0.00130208
Gmin = 2.05103e-06
vernier = 0.00173611
vernier = 0.00231481
Gmin = 2.04149e-06
vernier = 0.00308642
vernier = 0.00411522
Gmin = 2.02645e-06
vernier = 0.00548696
Gmin = 2.00229e-06
vernier = 0.00731595
vernier = 0.00975459
Gmin = 1.96334e-06
vernier = 0.0130061
vernier = 0.0173415
Gmin = 1.9032e-06
vernier = 0.023122
Gmin = 1.80957e-06
vernier = 0.0308293
vernier = 0.0411057
Gmin = 1.66627e-06
vernier = 0.0548076
vernier = 0.0730768
Gmin = 1.46251e-06
vernier = 0.0974357
Gmin = 1.18448e-06
vernier = 0.129914
vernier = 0.173219
Gmin = 8.40532e-07
vernier = 0.230959
vernier = 0.307945
Gmin = 4.90725e-07
vernier = 0.410593
Gmin = 2.0778e-07
vernier = 0.547457
vernier = 0.273728
vernier = 0.136864
Gmin = 1.05581e-07
vernier = 0.0684321
vernier = 0.0342161
vernier = 0.017108
vernier = 0.00855401
Gmin = 1.00371e-07
vernier = 0.00427701
vernier = 0.0021385
vernier = 0.00106925
Gmin = 1.00049e-07
vernier = 0.000534626
vernier = 0.000400969
Gmin = 0
Gmin stepping failed

Starting source stepping with srcstepmethod=0
Source Step = 3.0303%
Source Step = 28.0303%
vernier = 0.0625
Source Step = 27.2934%
Source Step = 27.323%
Source Step = 27.3526%
Source Step = 27.3822%
Source Step = 27.4118%
vernier = 0.00146484
Source Step = 27.4473%
Source Step = 27.4917%
Source Step = 27.5361%
Source Step = 27.5805%
Source Step = 27.6249%
vernier = 0.00219727
Source Step = 27.6759%
Source Step = 27.7425%
Source Step = 27.8091%
Source Step = 27.8757%
Source Step = 27.9423%
vernier = 0.0032959
Source Step = 28.0155%
Source Step = 28.1154%
Source Step = 28.2153%
Source Step = 28.3151%
Source Step = 28.415%
vernier = 0.00494385
Source Step = 28.5199%
Source Step = 28.6697%
Source Step = 28.8195%
Source Step = 28.9693%
Source Step = 29.1191%
Source Step = 29.2689%
vernier = 0.00741577
Source Step = 29.4937%
Source Step = 29.7184%
Source Step = 29.9431%
Source Step = 30.1678%
Source Step = 30.3925%
vernier = 0.0111237
Source Step = 30.7184%
Source Step = 31.0555%
Source Step = 31.3926%
Source Step = 31.7296%
Source Step = 32.0667%
vernier = 0.0166855
Source Step = 32.5386%
Source Step = 33.0442%
Source Step = 33.5499%
Source Step = 34.0555%
Source Step = 34.5611%
vernier = 0.0250282
Source Step = 35.2437%
Source Step = 36.0021%
Source Step = 36.7606%
Source Step = 37.519%
Source Step = 38.2774%
vernier = 0.0375423
Source Step = 39.2634%
Source Step = 40.401%
Source Step = 41.5387%
Source Step = 42.6763%
Source Step = 43.814%
vernier = 0.0563135
Source Step = 45.236%
Source Step = 46.9425%
Source Step = 48.649%
Source Step = 50.3554%
Source Step = 52.0619%
vernier = 0.0844703
Source Step = 54.1097%
Source Step = 56.6694%
Source Step = 59.2291%
Source Step = 61.7888%
Source Step = 64.3485%
vernier = 0.126705
Source Step = 67.2922%
Source Step = 71.1317%
Source Step = 74.9713%
Source Step = 78.8108%
Source Step = 82.6504%
vernier = 0.190058
Source Step = 86.8739%
Source Step = 92.6332%
Source Step = 93.8301%
Source Step = 93.9201%
Source Step = 94.0101%
Source Step = 94.1001%
Source Step = 94.1901%
Source Step = 94.28%
Source Step = 94.37%
Source Step = 94.46%
Source Step = 94.55%
Source Step = 94.64%
vernier = 0.00445449
Source Step = 94.766%
Source Step = 94.901%
Source Step = 95.036%
Source Step = 95.1709%
Source Step = 95.3059%
vernier = 0.00668173
Source Step = 95.4882%
Source Step = 95.6906%
Source Step = 95.8931%
Source Step = 96.0956%
Source Step = 96.2981%
vernier = 0.0100226
Source Step = 96.5613%
Source Step = 96.865%
Source Step = 97.1687%
Source Step = 97.4724%
Source Step = 97.7761%
vernier = 0.0150339
Source Step = 98.1558%
Source Step = 98.6114%
Source Step = 99.0669%
Source Step = 99.5225%
Source Step = 99.9781%
Source stepping succeeded in finding the operating point.


Date: Mon Nov 13 06:34:19 2023
Total elapsed time: 32.504 seconds.

tnom = 27
temp = 27
method = modified trap
totiter = 2594358
traniter = 2582945
tranpoints = 1011889
accept = 943966
rejected = 67923
matrix size = 112
fillins = 1141
solver = Normal
Avg thread counts: 1.0/1.0/1.0/1.0
Matrix Compiler1: 185.62 KB object code size  16.5/8.9/[4.6]
Matrix Compiler2: 28.53 KB object code size  2.2/2.0/[0.5]

